Version 4
SHEET 1 2000 976
WIRE 608 -224 320 -224
WIRE 960 -224 608 -224
WIRE 1216 -224 960 -224
WIRE 608 -176 608 -224
WIRE 960 -160 960 -224
WIRE 1216 -112 1216 -224
WIRE 608 -48 608 -96
WIRE 752 -48 608 -48
WIRE 320 -16 320 -224
WIRE 608 -16 608 -48
WIRE 752 32 752 -48
WIRE 816 32 752 32
WIRE 960 48 960 -96
WIRE 960 48 912 48
WIRE 1008 48 960 48
WIRE 1056 48 1008 48
WIRE 1216 48 1216 -32
WIRE 1216 48 1120 48
WIRE 816 64 752 64
WIRE 320 96 320 -16
WIRE 320 96 288 96
WIRE 608 96 608 -16
WIRE 608 96 576 96
WIRE 48 112 32 112
WIRE 192 112 48 112
WIRE 480 112 432 112
WIRE 320 128 288 128
WIRE 608 128 576 128
WIRE 960 128 960 48
WIRE 1040 128 960 128
WIRE 1216 128 1216 48
WIRE 1216 128 1120 128
WIRE 1344 128 1216 128
WIRE 432 160 432 112
WIRE 752 160 752 64
WIRE 816 160 752 160
WIRE 1344 176 1344 128
WIRE 320 224 320 128
WIRE 416 224 320 224
WIRE 608 224 608 128
WIRE 608 224 496 224
WIRE 752 224 752 160
WIRE 32 240 32 112
WIRE 1216 240 1216 128
WIRE 320 304 320 224
WIRE 368 304 320 304
WIRE 496 304 448 304
WIRE 608 304 608 224
WIRE 608 304 560 304
WIRE 32 320 32 304
WIRE 320 336 320 304
WIRE 608 336 608 304
WIRE 32 384 32 320
WIRE 320 448 320 416
WIRE 608 448 608 416
WIRE 608 448 320 448
WIRE 752 448 752 304
WIRE 752 448 608 448
WIRE 1216 448 1216 320
WIRE 1216 448 752 448
FLAG 816 160 out
IOPIN 816 160 Out
FLAG 48 112 in
FLAG 320 -16 c1
FLAG 432 160 0
FLAG 1344 176 0
FLAG 32 384 0
FLAG 608 -16 c2
FLAG 320 224 e1
FLAG 608 224 e2
FLAG 1008 48 b3
SYMBOL voltage 32 224 R0
WINDOW 123 48 59 Left 2
WINDOW 39 0 0 Left 0
WINDOW 3 15 111 Left 2
SYMATTR Value2 AC 1
SYMATTR Value SINE({Voff} {Vs} {fs})
SYMATTR InstName VG
SYMBOL Misc\\battery 1216 -128 R0
SYMATTR InstName VCC
SYMATTR Value 9V
SYMBOL Misc\\EuropeanResistor 304 320 R0
SYMATTR InstName RE1
SYMATTR Value {RE}
SYMBOL Misc\\EuropeanResistor 592 -192 R0
SYMATTR InstName RC2
SYMATTR Value {RC2}
SYMBOL Misc\\EuropeanResistor 736 208 R0
SYMATTR InstName RC3
SYMATTR Value {RC3}
SYMBOL Misc\\EuropeanResistor 512 208 R90
WINDOW 0 5 56 VBottom 2
WINDOW 3 27 56 VTop 2
SYMATTR InstName REE1
SYMATTR Value {REE1}
SYMBOL Misc\\EuropeanResistor 592 320 R0
SYMATTR InstName RE2
SYMATTR Value {RE}
SYMBOL Misc\\battery 1216 224 R0
SYMATTR InstName VSS
SYMATTR Value 9V
SYMBOL Misc\\EuropeanResistor 1136 112 R90
WINDOW 0 5 56 VBottom 2
WINDOW 3 27 56 VTop 2
SYMATTR InstName RB2
SYMATTR Value 510
SYMBOL cap 1120 32 R90
WINDOW 0 0 32 VBottom 2
WINDOW 3 32 32 VTop 2
SYMATTR InstName C2
SYMATTR Value 100n
SYMBOL zener 944 -96 M180
WINDOW 0 24 64 Left 2
WINDOW 3 24 0 Left 2
SYMATTR InstName D2
SYMATTR Value DZ6V8
SYMATTR Description Diode
SYMATTR Type diode
SYMBOL NPN 240 112 R0
SYMATTR InstName Q1
SYMBOL NPN 528 112 R0
SYMATTR InstName Q2
SYMBOL PNP 864 48 R180
SYMATTR InstName Q3
SYMBOL Misc\\EuropeanResistor 464 288 R90
WINDOW 0 5 56 VBottom 2
WINDOW 3 27 56 VTop 2
SYMATTR InstName REE2
SYMATTR Value {REE2}
SYMBOL cap 560 288 R90
WINDOW 0 0 32 VBottom 2
WINDOW 3 32 32 VTop 2
SYMATTR InstName CEE
SYMATTR Value {CEE}
TEXT 336 536 Left 2 !.ac dec 100 1 3G
TEXT 336 504 Left 2 !;op
TEXT 1424 0 Left 2 ;.PARAM REE1=5\n.PARAM REE2=8\n.PARAM CEE=50p\n.PARAM CG=50p\n.PARAM RE=200\n.PARAM RC2=81\n.PARAM RC3=330\n.PARAM Voff=0\n.PARAM Vs=0.1\n.PARAM fs=1k
TEXT 1000 496 Left 2 !.MEAS AC A0 FIND mag(V(out)) AT 1KHz\n.MEAS AC fg FIND freq WHEN mag(V(out))=A0/sqrt(2) FALL=LAST\n.MEAS AC GBW PARAM A0*fg
TEXT 344 576 Left 2 ;.tran 0 {3/fs} 0.3m {0.001/fs}
TEXT 1000 616 Left 2 !.MEAS TRAN Vmax max V(out)\n.MEAS TRAN Vmin min V(out)\n.MEAS TRAN Vpp PARAM Vmax-Vmin
TEXT 1416 -96 Left 2 !.include params.inc
TEXT 328 656 Left 2 ;.meas AC boost MAX V(out)\n.meas AC ku0 FIND V(out) AT 0\n.meas AC fg FIND freq WHEN ku0=ku0)-3 CROSS=LAST
TEXT 832 768 Left 2 ;.meas AC fg FIND freq WHEN ku0=ku0)-3 CROSS=LAST
TEXT 832 736 Left 2 ;.meas AC ku0 FIND V(out) AT 0
